/*--------------------------------*- C++ -*----------------------------------*\
| =========                 |                                                 |
| \\      /  F ield         | OpenFOAM: The Open Source CFD Toolbox           |
|  \\    /   O peration     | Version:  5.x                                   |
|   \\  /    A nd           | Web:      www.OpenFOAM.org                      |
|    \\/     M anipulation  |                                                 |
\*---------------------------------------------------------------------------*/
FoamFile
{
    version     2.0;
    format      ascii;
    class       polyBoundaryMesh;
    location    "constant/polyMesh";
    object      boundary;
}
// * * * * * * * * * * * * * * * * * * * * * * * * * * * * * * * * * * * * * //

8
(
    frontField
    {
        type            patch;
        nFaces          368;
        startFace       182707;
    }
    backField
    {
        type            patch;
        nFaces          600;
        startFace       183075;
    }
    symPlane
    {
        type            symmetryPlane;
        inGroups        1(symmetryPlane);
        nFaces          1756;
        startFace       183675;
    }
    sideField
    {
        type            patch;
        nFaces          2100;
        startFace       185431;
    }
    ground
    {
        type            wall;
        inGroups        1(wall);
        nFaces          3014;
        startFace       187531;
    }
    top
    {
        type            patch;
        nFaces          2831;
        startFace       190545;
    }
    vapourInlet
    {
        type            patch;
        nFaces          0;
        startFace       193376;
    }
    procBoundary0to1
    {
        type            processor;
        inGroups        1(processor);
        nFaces          1353;
        startFace       193376;
        matchTolerance  0.0001;
        transform       unknown;
        myProcNo        0;
        neighbProcNo    1;
    }
)

// ************************************************************************* //
