/*--------------------------------*- C++ -*----------------------------------*\
| =========                 |                                                 |
| \\      /  F ield         | OpenFOAM: The Open Source CFD Toolbox           |
|  \\    /   O peration     | Version:  2.4.0                                 |
|   \\  /    A nd           | Web:      www.OpenFOAM.org                      |
|    \\/     M anipulation  |                                                 |
\*---------------------------------------------------------------------------*/
FoamFile
{
    version     2.0;
    format      ascii;
    class       volScalarField;
    location    "0";
    object      p;
}
// * * * * * * * * * * * * * * * * * * * * * * * * * * * * * * * * * * * * * //

#include        "$FOAM_CASE/data/ablParams"

dimensions      [1 -1 -2 0 0 0 0];

internalField   uniform $pressure;

boundaryField
{
    vapourInlet
    {   
        type            zeroGradient;
    }   
    frontField
    {   
        type            zeroGradient;
    }   
    backField
    {   
        type            zeroGradient;
    }   
    sideField
    {   
        type            zeroGradient;
    }   
    top 
    {   
        type            zeroGradient;
    }
    ground
    {
        type            zeroGradient;
    }
    symPlane
    {
        type            symmetryPlane;
    }
}
// ************************************************************************* //
