/*--------------------------------*- C++ -*----------------------------------*\
| =========                 |                                                 |
| \\      /  F ield         | OpenFOAM: The Open Source CFD Toolbox           |
|  \\    /   O peration     | Version:  5                                     |
|   \\  /    A nd           | Web:      www.OpenFOAM.org                      |
|    \\/     M anipulation  |                                                 |
\*---------------------------------------------------------------------------*/
FoamFile
{
    version     2.0;
    format      ascii;
    class       dictionary;
    object      RASProperties;
}
// * * * * * * * * * * * * * * * * * * * * * * * * * * * * * * * * * * * * * //
#include        "$FOAM_CASE/data/ablParams"

simulationType RAS;

RAS
{
    RASModel            atmKEpsilon;
    atmKEpsilonCoeffs
    {
        Cg              1.0;
        C3b               3;
       moLength          $MOLength;
        kappa           4.1;
        uStar            $frictionVel;
        temStar           $frictionTem;

    }
    turbulence          on;

    printCoeffs         on;
}


// ************************************************************************* //
