/*--------------------------------*- C++ -*----------------------------------*\
| =========                 |                                                 |
| \\      /  F ield         | OpenFOAM: The Open Source CFD Toolbox           |
|  \\    /   O peration     | Version:  5.0                                   |
|   \\  /    A nd           | Web:      www.OpenFOAM.org                      |
|    \\/     M anipulation  |                                                 |
\*---------------------------------------------------------------------------*/
FoamFile
{
    version     2.0;
    format      ascii;
    class       dictionary;
    object      fvSolution;
}
// * * * * * * * * * * * * * * * * * * * * * * * * * * * * * * * * * * * * * //
#include        "$FOAM_CASE/data/ablParams"

solvers
{
    p_rgh
    {
        solver          GAMG;
        smoother        GaussSeidel;
        tolerance       1e-7;
        relTol          0.01;
    }

    "(U|h|k|epsilon)"
    {
        solver          GAMG;
        smoother        GaussSeidel;
        tolerance       1e-8;
        relTol          0.1;
    }

}

SIMPLE
{
    nNonOrthogonalCorrectors 0;

    residualControl
    {
        p_rgh           1e-3;
        U               1e-4;
        "(h|k|epsilon)"   1e-3;
    }

}

relaxationFactors
{
    fields
    {
        p_rgh           0.5;
    }
    equations
    {
        U               0.5;
        "(h|k|epsilon|omega)" 0.5;
    }
}

cache
{
    grad(U);
}

// ************************************************************************* //
